Program Version,EnergyPlus, Version 9.0.1-bb7ca4f0da, YMD=2020.12.10 10:44,
   ************* Beginning Zone Sizing Calculations
   ** Warning ** Weather file location will be used rather than entered (IDF) Location object.
   **   ~~~   ** ..Location object=MODELLO (O1-O4:3O-O9)  (01-04:30-09)
   **   ~~~   ** ..Weather File Location=Larnaca Intl AP LA CYP ISD-TMYx WMO#=176090
   **   ~~~   ** ..due to location differences, Latitude difference=[5.00E-003] degrees, Longitude difference=[5.00E-003] degrees.
   **   ~~~   ** ..Time Zone difference=[0.0] hour(s), Elevation difference=[20.00] percent, [0.40] meters.
   ** Warning ** GetSurfaceData: Construction PROJECT PARTITION of interzone surface BLOCK1:BEDROOM_PARTITION_2_0_0 does not have the same materials in the reverse order as the construction PROJECT PARTITION_REV of adjacent surface BLOCK1:BATHROOM_PARTITION_4_0_10002
   **   ~~~   ** ...but Nominal U values are similar, diff=[0.0000] ... simulation proceeds.
   **   ~~~   ** ...if the two zones are expected to have significantly different temperatures, the proper "reverse" construction should be created.
   **   ~~~   ** ...this problem for this pair will not be reported again.
   ** Warning ** GetSurfaceData: Entered Zone Floor Areas differ from calculated Zone Floor Area(s).
   **   ~~~   ** ...use Output:Diagnostics,DisplayExtraWarnings; to show more details on individual zones.
   ************* Note that the following warning(s) may/will occur if you have not enclosed your zone completely.
   ** Warning ** Entered Zone Volumes differ from calculated zone volume(s).
   **   ~~~   ** ...use Output:Diagnostics,DisplayExtraWarnings; to show more details on individual zones.
   ** Warning ** CheckUsedConstructions: There are 6 nominally unused constructions in input.
   **   ~~~   ** For explicit details on each unused construction, use Output:Diagnostics,DisplayExtraWarnings;
   ** Warning ** Temperature out of range [-100. to 200.] (PsyPsatFnTemp)
   **   ~~~   **  Routine=CalcPurchAirLoads, During Sizing, Environment=WINTER DESIGN DAY IN MODELLO (O1-O4:3O-O9), at Simulation time=01/15 24:00 - 24:10
   **   ~~~   **  Input Temperature=-2871.44
   ** Warning ** Output:Meter: invalid Key Name="GAS:FACILITY" - not found.
   ** Warning ** Output:Meter: invalid Key Name="GAS:FACILITY" - not found.
   ************* Testing Individual Branch Integrity
   ************* All Branches passed integrity testing
   ************* Testing Individual Supply Air Path Integrity
   ************* All Supply Air Paths passed integrity testing
   ************* Testing Individual Return Air Path Integrity
   ************* All Return Air Paths passed integrity testing
   ************* No node connection errors were found.
   ************* Beginning Simulation
   ** Warning ** Processing Monthly Tabular Reports: Variable names not valid for this simulation
   **   ~~~   ** ...use Output:Diagnostics,DisplayExtraWarnings; to show more details on individual variables.
   ************* Simulation Error Summary *************
   ** Warning ** The following Report Variables were requested but not generated -- check.rdd file
   **   ~~~   ** Either the IDF did not contain these elements, the variable name is misspelled,
   **   ~~~   ** or the requested variable is an advanced output which requires Output : Diagnostics, DisplayAdvancedReportVariables;
   ************* Key=*, VarName=FAN ELECTRIC POWER, Frequency=TimeStep
   ************* Key=*, VarName=ZONE RADIANT HVAC HEATING RATE, Frequency=TimeStep
   ************* Key=*, VarName=FAN ELECTRIC POWER, Frequency=Hourly
   ************* Key=*, VarName=ZONE RADIANT HVAC HEATING RATE, Frequency=Hourly
   ************* Key=*, VarName=ZONE MIXING SENSIBLE HEAT LOSS ENERGY, Frequency=TimeStep
   ************* Key=*, VarName=ZONE MIXING SENSIBLE HEAT GAIN ENERGY, Frequency=TimeStep
   ************* Key=*, VarName=ZONE MIXING STANDARD DENSITY VOLUME FLOW RATE, Frequency=TimeStep
   ************* Key=*, VarName=ZONE ELECTRIC EQUIPMENT TOTAL HEATING RATE, Frequency=TimeStep
   ************* Key=*, VarName=ZONE GAS EQUIPMENT TOTAL HEATING RATE, Frequency=TimeStep
   ************* Key=*, VarName=ZONE MIXING SENSIBLE HEAT LOSS ENERGY, Frequency=Hourly
   ************* Key=*, VarName=ZONE MIXING SENSIBLE HEAT GAIN ENERGY, Frequency=Hourly
   ************* Key=*, VarName=ZONE MIXING STANDARD DENSITY VOLUME FLOW RATE, Frequency=Hourly
   ************* Key=*, VarName=ZONE ELECTRIC EQUIPMENT TOTAL HEATING RATE, Frequency=Hourly
   ************* Key=*, VarName=ZONE GAS EQUIPMENT TOTAL HEATING RATE, Frequency=Hourly
   ************* There are 1 unused objects in input.
   ************* Use Output:Diagnostics,DisplayUnusedObjects; to see them.
   ************* There are 12 unused schedules in input.
   ************* There are 3 unused week schedules in input.
   ************* There are 5 unused day schedules in input.
   ************* Use Output:Diagnostics,DisplayUnusedSchedules; to see them.
   *************
   ************* ===== Recurring Error Summary =====
   ************* The following recurring error messages occurred.
   *************
   *************  ** Warning ** Temperature out of range [-100. to 200.] (PsyPsatFnTemp)
   *************  **   ~~~   **   This error occurred 3 total times;
   *************  **   ~~~   **   during Warmup 0 times;
   *************  **   ~~~   **   during Sizing 3 times.
   *************  **   ~~~   **   Max=-2741.137939 C  Min=-11289.905273 C
   *************
   *************
   ************* ===== Final Error Summary =====
   ************* The following error categories occurred.  Consider correcting or noting.
   ************* Nominally Unused Constructions
   ************* ..The nominally unused constructions warning is provided to alert you to potential conditions that can cause
   ************* ..extra time during simulation. Each construction is calculated by the algorithm indicated in the HeatBalanceAlgorithm
   ************* ..object. You may remove the constructions indicated (when you use the DisplayExtraWarnings option).
   *************
   ************* EnergyPlus Warmup Error Summary. During Warmup: 0 Warning; 0 Severe Errors.
   ************* EnergyPlus Sizing Error Summary. During Sizing: 5 Warning; 0 Severe Errors.
   ************* EnergyPlus Completed Successfully-- 12 Warning; 0 Severe Errors; Elapsed Time=00hr 00min 14.26sec
