  0
SECTION
  2
ENTITIES
999
DXF created from EnergyPlus
999
Program Version,EnergyPlus, Version 9.0.1-bb7ca4f0da, YMD=2020.12.03 11:27
999
Polygon Action,TRIANGULATE3DFACE
999
Color Scheme,Default
999
Text - True North
  0
TEXT
  8
1
  6
Continuous
 62
  3
 10
       -7.50000
 20
       -2.62500
 30
        0.10000
 40
 .25
  1
True North
 41
 0.0
  7
MONOTXT
210
0.0
220
0.0
230
1.0
999
Text - Building Title
  0
TEXT
  8
1
  6
Continuous
 62
  3
 10
      -10.50000
 20
       -6.62500
 30
        0.10000
 40
 .4
  1
Building - Building
 41
 0.0
  7
MONOTXT
210
0.0
220
0.0
230
1.0
999
North Arrow Stem
  0
3DFACE
  8
1
 62
  3
 10
       -6.50000
 20
       -2.62500
 30
        0.10000
 11
       -6.50000
 21
       -2.62500
 31
        0.00000
 12
       -6.50000
 22
       -5.62500
 32
        0.00000
 13
       -6.50000
 23
       -5.62500
 33
        0.10000
999
North Arrow Head 1
  0
3DFACE
  8
1
 62
  3
 10
       -6.50000
 20
       -2.62500
 30
        0.10000
 11
       -6.50000
 21
       -2.62500
 31
        0.00000
 12
       -7.00000
 22
       -3.49103
 32
        0.00000
 13
       -7.00000
 23
       -3.49103
 33
        0.10000
999
North Arrow Head 2
  0
3DFACE
  8
1
 62
  3
 10
       -6.50000
 20
       -2.62500
 30
        0.10000
 11
       -6.50000
 21
       -2.62500
 31
        0.00000
 12
       -6.00000
 22
       -3.49103
 32
        0.00000
 13
       -6.00000
 23
       -3.49103
 33
        0.10000
999
North Arrow Side 1
  0
3DFACE
  8
1
 62
  3
 10
       -7.00000
 20
       -1.12500
 30
        0.10000
 11
       -7.00000
 21
       -1.12500
 31
        0.00000
 12
       -7.00000
 22
       -2.12500
 32
        0.00000
 13
       -7.00000
 23
       -2.12500
 33
        0.10000
999
North Arrow Side 2
  0
3DFACE
  8
1
 62
  3
 10
       -7.00000
 20
       -1.12500
 30
        0.10000
 11
       -7.00000
 21
       -1.12500
 31
        0.00000
 12
       -6.00000
 22
       -2.12500
 32
        0.00000
 13
       -6.00000
 23
       -2.12500
 33
        0.10000
999
North Arrow Side 3
  0
3DFACE
  8
1
 62
  3
 10
       -6.00000
 20
       -1.12500
 30
        0.10000
 11
       -6.00000
 21
       -1.12500
 31
        0.00000
 12
       -6.00000
 22
       -2.12500
 32
        0.00000
 13
       -6.00000
 23
       -2.12500
 33
        0.10000
999
Zone Names
999
Zone=1:BLOCK1_BEDROOM
999
Zone=2:BLOCK1_BATHROOM
999
Zone=3:BLOCK1_KITCHEN
999
BLOCK1:BEDROOM:BLOCK1:BEDROOM_PARTITION_2_0_0
  0
3DFACE
  8
BLOCK1_BEDROOM
 62
 43
 10
        5.50000
 20
       -0.62290
 30
        3.50000
 11
        5.50000
 21
       -0.62290
 31
        0.00000
 12
        5.50000
 22
        1.37500
 32
        0.00000
 13
        5.50000
 23
        1.37500
 33
        3.50000
999
BLOCK1:BEDROOM:BLOCK1:BEDROOM_PARTITION_3_0_0
  0
3DFACE
  8
BLOCK1_BEDROOM
 62
 43
 10
        5.50000
 20
        1.37500
 30
        3.50000
 11
        5.50000
 21
        1.37500
 31
        0.00000
 12
        8.50000
 22
        1.37500
 32
        0.00000
 13
        8.50000
 23
        1.37500
 33
        3.50000
999
BLOCK1:BEDROOM:BLOCK1:BEDROOM_WALL_4_0_0
  0
3DFACE
  8
BLOCK1_BEDROOM
 62
 43
 10
        8.50000
 20
        1.37500
 30
        3.50000
 11
        8.50000
 21
        1.37500
 31
        0.00000
 12
        8.50000
 22
        5.37500
 32
        0.00000
 13
        8.50000
 23
        5.37500
 33
        3.50000
999
BLOCK1:BEDROOM:BLOCK1:BEDROOM_WALL_4_0_0_0_0_0_WIN
  0
3DFACE
  8
BLOCK1_BEDROOM
 62
143
 10
        8.50000
 20
        2.12842
 30
        2.36000
 11
        8.50000
 21
        2.12842
 31
        0.94000
 12
        8.50000
 22
        4.26658
 32
        0.94000
 13
        8.50000
 23
        4.26658
 33
        2.36000
999
BLOCK1:BEDROOM:BLOCK1:BEDROOM_WALL_5_0_0
  0
3DFACE
  8
BLOCK1_BEDROOM
 62
 43
 10
        8.50000
 20
        5.37500
 30
        3.50000
 11
        8.50000
 21
        5.37500
 31
        0.00000
 12
        3.50000
 22
        5.37500
 32
        0.00000
 13
        3.50000
 23
        5.37500
 33
        3.50000
999
BLOCK1:BEDROOM:BLOCK1:BEDROOM_WALL_5_0_0_0_0_0_WIN
  0
3DFACE
  8
BLOCK1_BEDROOM
 62
143
 10
        7.20891
 20
        5.37500
 30
        2.36000
 11
        7.20891
 21
        5.37500
 31
        0.94000
 12
        4.43609
 22
        5.37500
 32
        0.94000
 13
        4.43609
 23
        5.37500
 33
        2.36000
999
BLOCK1:BEDROOM:BLOCK1:BEDROOM_PARTITION_6_0_0
  0
3DFACE
  8
BLOCK1_BEDROOM
 62
 43
 10
        3.50000
 20
        5.37500
 30
        3.50000
 11
        3.50000
 21
        5.37500
 31
        0.00000
 12
        3.50000
 22
       -0.62290
 32
        0.00000
 13
        3.50000
 23
       -0.62290
 33
        3.50000
999
BLOCK1:BEDROOM:BLOCK1:BEDROOM_PARTITION_7_0_0
  0
3DFACE
  8
BLOCK1_BEDROOM
 62
 43
 10
        3.50000
 20
       -0.62290
 30
        3.50000
 11
        3.50000
 21
       -0.62290
 31
        0.00000
 12
        5.50000
 22
       -0.62290
 32
        0.00000
 13
        5.50000
 23
       -0.62290
 33
        3.50000
999
BLOCK1:BEDROOM:BLOCK1:BEDROOM_FLOOR_0_0_0
  0
3DFACE
  8
BLOCK1_BEDROOM
 62
  8
 10
        8.50000
 20
        5.37500
 30
        0.00000
 11
        8.50000
 21
        1.37500
 31
        0.00000
 12
        5.50000
 22
        1.37500
 32
        0.00000
 13
        5.50000
 23
        5.37500
 33
        0.00000
999
BLOCK1:BEDROOM:BLOCK1:BEDROOM_FLOOR_0_0_1
  0
3DFACE
  8
BLOCK1_BEDROOM
 62
  8
 10
        5.50000
 20
        5.37500
 30
        0.00000
 11
        5.50000
 21
       -0.62290
 31
        0.00000
 12
        3.50000
 22
       -0.62290
 32
        0.00000
 13
        3.50000
 23
        5.37500
 33
        0.00000
999
BLOCK1:BEDROOM:BLOCK1:BEDROOM_ROOF_1_0_0
  0
3DFACE
  8
BLOCK1_BEDROOM
 62
 15
 10
        3.50000
 20
        1.37500
 30
        3.50000
 11
        3.50000
 21
       -0.62290
 31
        3.50000
 12
        5.50000
 22
       -0.62290
 32
        3.50000
 13
        5.50000
 23
        1.37500
 33
        3.50000
999
BLOCK1:BEDROOM:BLOCK1:BEDROOM_ROOF_1_0_1
  0
3DFACE
  8
BLOCK1_BEDROOM
 62
 15
 10
        3.50000
 20
        5.37500
 30
        3.50000
 11
        3.50000
 21
        1.37500
 31
        3.50000
 12
        8.50000
 22
        1.37500
 32
        3.50000
 13
        8.50000
 23
        5.37500
 33
        3.50000
999
BLOCK1:BATHROOM:BLOCK1:BATHROOM_PARTITION_4_0_10002
  0
3DFACE
  8
BLOCK1_BATHROOM
 62
 43
 10
        5.50000
 20
        1.37500
 30
        3.50000
 11
        5.50000
 21
        1.37500
 31
        0.00000
 12
        5.50000
 22
       -0.62290
 32
        0.00000
 13
        5.50000
 23
       -0.62290
 33
        3.50000
999
BLOCK1:BATHROOM:BLOCK1:BATHROOM_PARTITION_3_0_10003
  0
3DFACE
  8
BLOCK1_BATHROOM
 62
 43
 10
        8.50000
 20
        1.37500
 30
        3.50000
 11
        8.50000
 21
        1.37500
 31
        0.00000
 12
        5.50000
 22
        1.37500
 32
        0.00000
 13
        5.50000
 23
        1.37500
 33
        3.50000
999
BLOCK1:BATHROOM:BLOCK1:BATHROOM_WALL_2_0_0
  0
3DFACE
  8
BLOCK1_BATHROOM
 62
 43
 10
        8.50000
 20
       -0.62290
 30
        3.50000
 11
        8.50000
 21
       -0.62290
 31
        0.00000
 12
        8.50000
 22
        1.37500
 32
        0.00000
 13
        8.50000
 23
        1.37500
 33
        3.50000
999
BLOCK1:BATHROOM:BLOCK1:BATHROOM_WALL_2_0_0_0_0_0_WIN
  0
3DFACE
  8
BLOCK1_BATHROOM
 62
143
 10
        8.50000
 20
       -0.17035
 30
        2.36000
 11
        8.50000
 21
       -0.17035
 31
        0.94000
 12
        8.50000
 22
        0.92245
 32
        0.94000
 13
        8.50000
 23
        0.92245
 33
        2.36000
999
BLOCK1:BATHROOM:BLOCK1:BATHROOM_PARTITION_5_0_0
  0
3DFACE
  8
BLOCK1_BATHROOM
 62
 43
 10
        5.50000
 20
       -0.62290
 30
        3.50000
 11
        5.50000
 21
       -0.62290
 31
        0.00000
 12
        8.50000
 22
       -0.62290
 32
        0.00000
 13
        8.50000
 23
       -0.62290
 33
        3.50000
999
BLOCK1:BATHROOM:BLOCK1:BATHROOM_FLOOR_0_0_0
  0
3DFACE
  8
BLOCK1_BATHROOM
 62
  8
 10
        8.50000
 20
        1.37500
 30
        0.00000
 11
        8.50000
 21
       -0.62290
 31
        0.00000
 12
        5.50000
 22
       -0.62290
 32
        0.00000
 13
        5.50000
 23
        1.37500
 33
        0.00000
999
BLOCK1:BATHROOM:BLOCK1:BATHROOM_ROOF_1_0_0
  0
3DFACE
  8
BLOCK1_BATHROOM
 62
 15
 10
        5.50000
 20
        1.37500
 30
        3.50000
 11
        5.50000
 21
       -0.62290
 31
        3.50000
 12
        8.50000
 22
       -0.62290
 32
        3.50000
 13
        8.50000
 23
        1.37500
 33
        3.50000
999
BLOCK1:KITCHEN:BLOCK1:KITCHEN_PARTITION_4_0_10005
  0
3DFACE
  8
BLOCK1_KITCHEN
 62
 43
 10
        5.50000
 20
       -0.62290
 30
        3.50000
 11
        5.50000
 21
       -0.62290
 31
        0.00000
 12
        3.50000
 22
       -0.62290
 32
        0.00000
 13
        3.50000
 23
       -0.62290
 33
        3.50000
999
BLOCK1:KITCHEN:BLOCK1:KITCHEN_PARTITION_3_0_10007
  0
3DFACE
  8
BLOCK1_KITCHEN
 62
 43
 10
        8.50000
 20
       -0.62290
 30
        3.50000
 11
        8.50000
 21
       -0.62290
 31
        0.00000
 12
        5.50000
 22
       -0.62290
 32
        0.00000
 13
        5.50000
 23
       -0.62290
 33
        3.50000
999
BLOCK1:KITCHEN:BLOCK1:KITCHEN_WALL_2_0_0
  0
3DFACE
  8
BLOCK1_KITCHEN
 62
 43
 10
        8.50000
 20
       -5.62500
 30
        3.50000
 11
        8.50000
 21
       -5.62500
 31
        0.00000
 12
        8.50000
 22
       -0.62290
 32
        0.00000
 13
        8.50000
 23
       -0.62290
 33
        3.50000
999
BLOCK1:KITCHEN:BLOCK1:KITCHEN_WALL_2_0_0_0_0_0_WIN
  0
3DFACE
  8
BLOCK1_KITCHEN
 62
143
 10
        8.50000
 20
       -4.33353
 30
        2.36000
 11
        8.50000
 21
       -4.33353
 31
        0.94000
 12
        8.50000
 22
       -1.55937
 32
        0.94000
 13
        8.50000
 23
       -1.55937
 33
        2.36000
999
BLOCK1:KITCHEN:BLOCK1:KITCHEN_PARTITION_5_0_0
  0
3DFACE
  8
BLOCK1_KITCHEN
 62
 43
 10
        3.50000
 20
       -0.62290
 30
        3.50000
 11
        3.50000
 21
       -0.62290
 31
        0.00000
 12
        3.50000
 22
       -5.62500
 32
        0.00000
 13
        3.50000
 23
       -5.62500
 33
        3.50000
999
BLOCK1:KITCHEN:BLOCK1:KITCHEN_WALL_6_0_0
  0
3DFACE
  8
BLOCK1_KITCHEN
 62
 43
 10
        3.50000
 20
       -5.62500
 30
        3.50000
 11
        3.50000
 21
       -5.62500
 31
        0.00000
 12
        8.50000
 22
       -5.62500
 32
        0.00000
 13
        8.50000
 23
       -5.62500
 33
        3.50000
999
BLOCK1:KITCHEN:BLOCK1:KITCHEN_WALL_6_0_0_0_0_0_WIN
  0
3DFACE
  8
BLOCK1_KITCHEN
 62
143
 10
        4.43609
 20
       -5.62500
 30
        2.36000
 11
        4.43609
 21
       -5.62500
 31
        0.94000
 12
        7.20891
 22
       -5.62500
 32
        0.94000
 13
        7.20891
 23
       -5.62500
 33
        2.36000
999
BLOCK1:KITCHEN:BLOCK1:KITCHEN_FLOOR_0_0_0
  0
3DFACE
  8
BLOCK1_KITCHEN
 62
  8
 10
        8.50000
 20
       -0.62290
 30
        0.00000
 11
        8.50000
 21
       -5.62500
 31
        0.00000
 12
        3.50000
 22
       -5.62500
 32
        0.00000
 13
        3.50000
 23
       -0.62290
 33
        0.00000
999
BLOCK1:KITCHEN:BLOCK1:KITCHEN_ROOF_1_0_0
  0
3DFACE
  8
BLOCK1_KITCHEN
 62
 15
 10
        3.50000
 20
       -0.62290
 30
        3.50000
 11
        3.50000
 21
       -5.62500
 31
        3.50000
 12
        8.50000
 22
       -5.62500
 32
        3.50000
 13
        8.50000
 23
       -0.62290
 33
        3.50000
999
BLOCK1:BEDROOM:DayRefPt:1
  0
CIRCLE
  8
BLOCK1_BEDROOM
 62
 10
 10
        7.00000
 20
        3.37500
 30
        0.90000
 40
        0.20000
999
BLOCK1:BATHROOM:DayRefPt:1
  0
CIRCLE
  8
BLOCK1_BATHROOM
 62
 10
 10
        7.00000
 20
        0.37600
 30
        0.90000
 40
        0.20000
999
BLOCK1:KITCHEN:DayRefPt:1
  0
CIRCLE
  8
BLOCK1_KITCHEN
 62
 10
 10
        6.00000
 20
       -3.12400
 30
        0.90000
 40
        0.20000
999
BLOCK1:BEDROOM:DEDayRefPt:1
  0
CIRCLE
  8
BLOCK1_BEDROOM
 62
 10
 10
        7.00000
 20
        3.37500
 30
        0.90000
 40
        0.20000
999
BLOCK1:BATHROOM:DEDayRefPt:1
  0
CIRCLE
  8
BLOCK1_BATHROOM
 62
 10
 10
        7.00000
 20
        0.37600
 30
        0.90000
 40
        0.20000
999
BLOCK1:KITCHEN:DEDayRefPt:1
  0
CIRCLE
  8
BLOCK1_KITCHEN
 62
 10
 10
        6.00000
 20
       -3.12400
 30
        0.90000
 40
        0.20000
  0
ENDSEC
  0
EOF
