  0
SECTION
  2
ENTITIES
999
DXF created from EnergyPlus
999
Program Version,EnergyPlus, Version 9.0.1-bb7ca4f0da, YMD=2021.02.03 17:59
999
Polygon Action,TRIANGULATE3DFACE
999
Color Scheme,Default
999
Text - True North
  0
TEXT
  8
1
  6
Continuous
 62
  3
 10
      -11.00000
 20
       -2.62500
 30
        0.10000
 40
 .25
  1
True North
 41
 0.0
  7
MONOTXT
210
0.0
220
0.0
230
1.0
999
Text - Building Title
  0
TEXT
  8
1
  6
Continuous
 62
  3
 10
      -14.00000
 20
       -6.62500
 30
        0.10000
 40
 .4
  1
Building - Building
 41
 0.0
  7
MONOTXT
210
0.0
220
0.0
230
1.0
999
North Arrow Stem
  0
3DFACE
  8
1
 62
  3
 10
      -10.00000
 20
       -2.62500
 30
        0.10000
 11
      -10.00000
 21
       -2.62500
 31
        0.00000
 12
      -10.00000
 22
       -5.62500
 32
        0.00000
 13
      -10.00000
 23
       -5.62500
 33
        0.10000
999
North Arrow Head 1
  0
3DFACE
  8
1
 62
  3
 10
      -10.00000
 20
       -2.62500
 30
        0.10000
 11
      -10.00000
 21
       -2.62500
 31
        0.00000
 12
      -10.50000
 22
       -3.49103
 32
        0.00000
 13
      -10.50000
 23
       -3.49103
 33
        0.10000
999
North Arrow Head 2
  0
3DFACE
  8
1
 62
  3
 10
      -10.00000
 20
       -2.62500
 30
        0.10000
 11
      -10.00000
 21
       -2.62500
 31
        0.00000
 12
       -9.50000
 22
       -3.49103
 32
        0.00000
 13
       -9.50000
 23
       -3.49103
 33
        0.10000
999
North Arrow Side 1
  0
3DFACE
  8
1
 62
  3
 10
      -10.50000
 20
       -1.12500
 30
        0.10000
 11
      -10.50000
 21
       -1.12500
 31
        0.00000
 12
      -10.50000
 22
       -2.12500
 32
        0.00000
 13
      -10.50000
 23
       -2.12500
 33
        0.10000
999
North Arrow Side 2
  0
3DFACE
  8
1
 62
  3
 10
      -10.50000
 20
       -1.12500
 30
        0.10000
 11
      -10.50000
 21
       -1.12500
 31
        0.00000
 12
       -9.50000
 22
       -2.12500
 32
        0.00000
 13
       -9.50000
 23
       -2.12500
 33
        0.10000
999
North Arrow Side 3
  0
3DFACE
  8
1
 62
  3
 10
       -9.50000
 20
       -1.12500
 30
        0.10000
 11
       -9.50000
 21
       -1.12500
 31
        0.00000
 12
       -9.50000
 22
       -2.12500
 32
        0.00000
 13
       -9.50000
 23
       -2.12500
 33
        0.10000
999
Zone Names
999
Zone=1:BLOCK1_BEDROOM
999
Zone=2:BLOCK1_BATHROOM
999
Zone=3:BLOCK1_KITCHEN
999
BLOCK1:BEDROOM:BLOCK1:BEDROOM_PARTITION_2_0_0
  0
3DFACE
  8
BLOCK1_BEDROOM
 62
 43
 10
        5.50000
 20
       -0.62290
 30
        3.50000
 11
        5.50000
 21
       -0.62290
 31
        0.00000
 12
        5.50000
 22
        1.37500
 32
        0.00000
 13
        5.50000
 23
        1.37500
 33
        3.50000
999
BLOCK1:BEDROOM:BLOCK1:BEDROOM_PARTITION_3_0_0
  0
3DFACE
  8
BLOCK1_BEDROOM
 62
 43
 10
        5.50000
 20
        1.37500
 30
        3.50000
 11
        5.50000
 21
        1.37500
 31
        0.00000
 12
        8.50000
 22
        1.37500
 32
        0.00000
 13
        8.50000
 23
        1.37500
 33
        3.50000
999
BLOCK1:BEDROOM:BLOCK1:BEDROOM_WALL_4_0_0
  0
3DFACE
  8
BLOCK1_BEDROOM
 62
 43
 10
        8.50000
 20
        1.37500
 30
        3.50000
 11
        8.50000
 21
        1.37500
 31
        0.00000
 12
        8.50000
 22
        5.37500
 32
        0.00000
 13
        8.50000
 23
        5.37500
 33
        3.50000
999
BLOCK1:BEDROOM:BLOCK1:BEDROOM_WALL_4_0_0_0_0_0_WIN
  0
3DFACE
  8
BLOCK1_BEDROOM
 62
143
 10
        0.00000
 20
        0.30000
 30
        1.23000
 11
        0.00000
 21
        0.30000
 31
        0.19000
 12
        0.00000
 22
        1.99000
 32
        0.19000
 13
        0.00000
 23
        1.99000
 33
        1.23000
999
BLOCK1:BEDROOM:BLOCK1:BEDROOM_WALL_5_0_0
  0
3DFACE
  8
BLOCK1_BEDROOM
 62
 43
 10
        8.50000
 20
        5.37500
 30
        3.50000
 11
        8.50000
 21
        5.37500
 31
        0.00000
 12
        3.50000
 22
        5.37500
 32
        0.00000
 13
        3.50000
 23
        5.37500
 33
        3.50000
999
BLOCK1:BEDROOM:BLOCK1:BEDROOM_WALL_5_0_0_0_0_0_WIN
  0
3DFACE
  8
BLOCK1_BEDROOM
 62
143
 10
        2.58000
 20
        0.00000
 30
        1.23000
 11
        2.58000
 21
        0.00000
 31
        0.19000
 12
        0.39000
 22
        0.00000
 32
        0.19000
 13
        0.39000
 23
        0.00000
 33
        1.23000
999
BLOCK1:BEDROOM:BLOCK1:BEDROOM_PARTITION_6_0_0
  0
3DFACE
  8
BLOCK1_BEDROOM
 62
 43
 10
        3.50000
 20
        5.37500
 30
        3.50000
 11
        3.50000
 21
        5.37500
 31
        0.00000
 12
        3.50000
 22
       -0.62290
 32
        0.00000
 13
        3.50000
 23
       -0.62290
 33
        3.50000
999
BLOCK1:BEDROOM:BLOCK1:BEDROOM_PARTITION_7_0_0
  0
3DFACE
  8
BLOCK1_BEDROOM
 62
 43
 10
        3.50000
 20
       -0.62290
 30
        3.50000
 11
        3.50000
 21
       -0.62290
 31
        0.00000
 12
        5.50000
 22
       -0.62290
 32
        0.00000
 13
        5.50000
 23
       -0.62290
 33
        3.50000
999
BLOCK1:BEDROOM:BLOCK1:BEDROOM_FLOOR_0_0_0
  0
3DFACE
  8
BLOCK1_BEDROOM
 62
  8
 10
        8.50000
 20
        5.37500
 30
        0.00000
 11
        8.50000
 21
        1.37500
 31
        0.00000
 12
        5.50000
 22
        1.37500
 32
        0.00000
 13
        5.50000
 23
        5.37500
 33
        0.00000
999
BLOCK1:BEDROOM:BLOCK1:BEDROOM_FLOOR_0_0_1
  0
3DFACE
  8
BLOCK1_BEDROOM
 62
  8
 10
        5.50000
 20
        5.37500
 30
        0.00000
 11
        5.50000
 21
       -0.62290
 31
        0.00000
 12
        3.50000
 22
       -0.62290
 32
        0.00000
 13
        3.50000
 23
        5.37500
 33
        0.00000
999
BLOCK1:BEDROOM:BLOCK1:BEDROOM_ROOF_1_0_0
  0
3DFACE
  8
BLOCK1_BEDROOM
 62
 15
 10
        3.50000
 20
        1.37500
 30
        3.50000
 11
        3.50000
 21
       -0.62290
 31
        3.50000
 12
        5.50000
 22
       -0.62290
 32
        3.50000
 13
        5.50000
 23
        1.37500
 33
        3.50000
999
BLOCK1:BEDROOM:BLOCK1:BEDROOM_ROOF_1_0_1
  0
3DFACE
  8
BLOCK1_BEDROOM
 62
 15
 10
        3.50000
 20
        5.37500
 30
        3.50000
 11
        3.50000
 21
        1.37500
 31
        3.50000
 12
        8.50000
 22
        1.37500
 32
        3.50000
 13
        8.50000
 23
        5.37500
 33
        3.50000
999
BLOCK1:BATHROOM:BLOCK1:BATHROOM_PARTITION_4_0_10002
  0
3DFACE
  8
BLOCK1_BATHROOM
 62
 43
 10
        5.50000
 20
        1.37500
 30
        3.50000
 11
        5.50000
 21
        1.37500
 31
        0.00000
 12
        5.50000
 22
       -0.62290
 32
        0.00000
 13
        5.50000
 23
       -0.62290
 33
        3.50000
999
BLOCK1:BATHROOM:BLOCK1:BATHROOM_PARTITION_3_0_10003
  0
3DFACE
  8
BLOCK1_BATHROOM
 62
 43
 10
        8.50000
 20
        1.37500
 30
        3.50000
 11
        8.50000
 21
        1.37500
 31
        0.00000
 12
        5.50000
 22
        1.37500
 32
        0.00000
 13
        5.50000
 23
        1.37500
 33
        3.50000
999
BLOCK1:BATHROOM:BLOCK1:BATHROOM_WALL_2_0_0
  0
3DFACE
  8
BLOCK1_BATHROOM
 62
 43
 10
        8.50000
 20
       -0.62290
 30
        3.50000
 11
        8.50000
 21
       -0.62290
 31
        0.00000
 12
        8.50000
 22
        1.37500
 32
        0.00000
 13
        8.50000
 23
        1.37500
 33
        3.50000
999
BLOCK1:BATHROOM:BLOCK1:BATHROOM_WALL_2_0_0_0_0_0_WIN
  0
3DFACE
  8
BLOCK1_BATHROOM
 62
143
 10
        0.00000
 20
        0.16000
 30
        1.23000
 11
        0.00000
 21
        0.16000
 31
        0.19000
 12
        0.00000
 22
        1.02000
 32
        0.19000
 13
        0.00000
 23
        1.02000
 33
        1.23000
999
BLOCK1:BATHROOM:BLOCK1:BATHROOM_PARTITION_5_0_0
  0
3DFACE
  8
BLOCK1_BATHROOM
 62
 43
 10
        5.50000
 20
       -0.62290
 30
        3.50000
 11
        5.50000
 21
       -0.62290
 31
        0.00000
 12
        8.50000
 22
       -0.62290
 32
        0.00000
 13
        8.50000
 23
       -0.62290
 33
        3.50000
999
BLOCK1:BATHROOM:BLOCK1:BATHROOM_FLOOR_0_0_0
  0
3DFACE
  8
BLOCK1_BATHROOM
 62
  8
 10
        8.50000
 20
        1.37500
 30
        0.00000
 11
        8.50000
 21
       -0.62290
 31
        0.00000
 12
        5.50000
 22
       -0.62290
 32
        0.00000
 13
        5.50000
 23
        1.37500
 33
        0.00000
999
BLOCK1:BATHROOM:BLOCK1:BATHROOM_ROOF_1_0_0
  0
3DFACE
  8
BLOCK1_BATHROOM
 62
 15
 10
        5.50000
 20
        1.37500
 30
        3.50000
 11
        5.50000
 21
       -0.62290
 31
        3.50000
 12
        8.50000
 22
       -0.62290
 32
        3.50000
 13
        8.50000
 23
        1.37500
 33
        3.50000
999
BLOCK1:KITCHEN:BLOCK1:KITCHEN_PARTITION_4_0_10005
  0
3DFACE
  8
BLOCK1_KITCHEN
 62
 43
 10
        5.50000
 20
       -0.62290
 30
        3.50000
 11
        5.50000
 21
       -0.62290
 31
        0.00000
 12
        3.50000
 22
       -0.62290
 32
        0.00000
 13
        3.50000
 23
       -0.62290
 33
        3.50000
999
BLOCK1:KITCHEN:BLOCK1:KITCHEN_PARTITION_3_0_10007
  0
3DFACE
  8
BLOCK1_KITCHEN
 62
 43
 10
        8.50000
 20
       -0.62290
 30
        3.50000
 11
        8.50000
 21
       -0.62290
 31
        0.00000
 12
        5.50000
 22
       -0.62290
 32
        0.00000
 13
        5.50000
 23
       -0.62290
 33
        3.50000
999
BLOCK1:KITCHEN:BLOCK1:KITCHEN_WALL_2_0_0
  0
3DFACE
  8
BLOCK1_KITCHEN
 62
 43
 10
        8.50000
 20
       -5.62500
 30
        3.50000
 11
        8.50000
 21
       -5.62500
 31
        0.00000
 12
        8.50000
 22
       -0.62290
 32
        0.00000
 13
        8.50000
 23
       -0.62290
 33
        3.50000
999
BLOCK1:KITCHEN:BLOCK1:KITCHEN_WALL_2_0_0_0_0_0_WIN
  0
3DFACE
  8
BLOCK1_KITCHEN
 62
143
 10
        0.00000
 20
        0.39000
 30
        1.23000
 11
        0.00000
 21
        0.39000
 31
        0.19000
 12
        0.00000
 22
        2.58000
 32
        0.19000
 13
        0.00000
 23
        2.58000
 33
        1.23000
999
BLOCK1:KITCHEN:BLOCK1:KITCHEN_PARTITION_5_0_0
  0
3DFACE
  8
BLOCK1_KITCHEN
 62
 43
 10
        3.50000
 20
       -0.62290
 30
        3.50000
 11
        3.50000
 21
       -0.62290
 31
        0.00000
 12
        3.50000
 22
       -5.62500
 32
        0.00000
 13
        3.50000
 23
       -5.62500
 33
        3.50000
999
BLOCK1:KITCHEN:BLOCK1:KITCHEN_WALL_6_0_0
  0
3DFACE
  8
BLOCK1_KITCHEN
 62
 43
 10
        3.50000
 20
       -5.62500
 30
        3.50000
 11
        3.50000
 21
       -5.62500
 31
        0.00000
 12
        8.50000
 22
       -5.62500
 32
        0.00000
 13
        8.50000
 23
       -5.62500
 33
        3.50000
999
BLOCK1:KITCHEN:BLOCK1:KITCHEN_WALL_6_0_0_0_0_0_WIN
  0
3DFACE
  8
BLOCK1_KITCHEN
 62
143
 10
        0.39000
 20
        0.00000
 30
        1.23000
 11
        0.39000
 21
        0.00000
 31
        0.19000
 12
        2.58000
 22
        0.00000
 32
        0.19000
 13
        2.58000
 23
        0.00000
 33
        1.23000
999
BLOCK1:KITCHEN:BLOCK1:KITCHEN_FLOOR_0_0_0
  0
3DFACE
  8
BLOCK1_KITCHEN
 62
  8
 10
        8.50000
 20
       -0.62290
 30
        0.00000
 11
        8.50000
 21
       -5.62500
 31
        0.00000
 12
        3.50000
 22
       -5.62500
 32
        0.00000
 13
        3.50000
 23
       -0.62290
 33
        0.00000
999
BLOCK1:KITCHEN:BLOCK1:KITCHEN_ROOF_1_0_0
  0
3DFACE
  8
BLOCK1_KITCHEN
 62
 15
 10
        3.50000
 20
       -0.62290
 30
        3.50000
 11
        3.50000
 21
       -5.62500
 31
        3.50000
 12
        8.50000
 22
       -5.62500
 32
        3.50000
 13
        8.50000
 23
       -0.62290
 33
        3.50000
999
BLOCK1:BEDROOM:DayRefPt:1
  0
CIRCLE
  8
BLOCK1_BEDROOM
 62
 10
 10
        7.00000
 20
        3.37500
 30
        0.90000
 40
        0.20000
999
BLOCK1:BATHROOM:DayRefPt:1
  0
CIRCLE
  8
BLOCK1_BATHROOM
 62
 10
 10
        7.00000
 20
        0.37600
 30
        0.90000
 40
        0.20000
999
BLOCK1:KITCHEN:DayRefPt:1
  0
CIRCLE
  8
BLOCK1_KITCHEN
 62
 10
 10
        6.00000
 20
       -3.12400
 30
        0.90000
 40
        0.20000
999
BLOCK1:BEDROOM:DEDayRefPt:1
  0
CIRCLE
  8
BLOCK1_BEDROOM
 62
 10
 10
        7.00000
 20
        3.37500
 30
        0.90000
 40
        0.20000
999
BLOCK1:BATHROOM:DEDayRefPt:1
  0
CIRCLE
  8
BLOCK1_BATHROOM
 62
 10
 10
        7.00000
 20
        0.37600
 30
        0.90000
 40
        0.20000
999
BLOCK1:KITCHEN:DEDayRefPt:1
  0
CIRCLE
  8
BLOCK1_KITCHEN
 62
 10
 10
        6.00000
 20
       -3.12400
 30
        0.90000
 40
        0.20000
  0
ENDSEC
  0
EOF
